LAMMPS (13 Jan 2014)
# (written by pyLammps)

atom_style charge
units metal
boundary p p p
read_data data.lmp
  triclinic box = (0 0 0) to (11.0908 10.4565 9.05566) with tilt (-3.69689 -3.69689 -5.22817)
  104 atoms

# Groups
group La type 1
12 atoms in group La
group Li type 2
36 atoms in group Li
group O type 3
48 atoms in group O
group Zr type 4
8 atoms in group Zr

### interactions
kspace_style ewald 1.0e-5
pair_style buck/coul/long 8.0
pair_coeff * * 0.00  0.100000  0.000000
pair_coeff 1 3 5436.827  0.293900  0.000000
pair_coeff 3 4 7290.347  0.261000  0.000000
pair_coeff 3 3 25.410  0.693700 32.320000
pair_coeff 2 3 426.480  0.300000  0.000000

fix 1 all nvt temp 2700 2700 100
compute msd all msd
compute msdLa La msd
compute msdLi Li msd
compute msdO O msd
compute msdZr Zr msd

thermo 100
thermo_style custom step time temp pe ke etotal press
dump            1 all custom 100 xyz.dat id type x y z
dump            2 all custom 100 velocity.dat id type vx vy vz
dump            3 all custom 100 forces.dat id type fx fy fz

variable t equal step*dt
variable msd_tot equal c_msd[4]
variable msd_La equal c_msdLa[4]
variable msd_Li equal c_msdLi[4]
variable msd_O equal c_msdO[4]
variable msd_Zr equal c_msdZr[4]

run 20000
Ewald initialization ...
  G vector (1/distance) = 0.424
  estimated absolute RMS force accuracy = 0.000147115
  estimated relative force accuracy = 1.02166e-05
  KSpace vectors: actual max1d max3d = 100 6 1098
                  kxmax kymax kzmax  = 6 3 1
Step Time Temp PotEng KinEng TotEng Press
0            0            0   -2156.2349            0   -2156.2349    240423.61
Averages over the last 101 of 201 rows, steps 10000 to 20000:
Temp PotEng KinEng TotEng Press
379.337 -2161.2 5.05042 -2156.15 233670
Loop time of 39.6693 on 1 procs for 20000 steps with 104 atoms

Pair  time (%) = 30.3112 (76.4097)
Kspce time (%) = 7.79126 (19.6405)
Neigh time (%) = 0.0468154 (0.118014)
Comm  time (%) = 1.05585 (2.66164)
Outpt time (%) = 0.112434 (0.283428)
Other time (%) = 0.351734 (0.886665)

# END
